FoamFile
{
	version	2.0;
	format	ascii;
	class	dictionary;
	location	"system";
	object	controlDict;
}
startTime	0.0;
deltaT	1.0;
endTime	1.0;
purgeWrite	2;
startFrom	latestTime;
stopAt	endTime;
writeFormat	binary;
compression	uncompressed;
timeFormat	general;
writeControl	timeStep;
writeInterval	10.0;
writePrecision	7;
timePrecision	6;
