FoamFile
{
	version	2.0;
	format	ascii;
	class	dictionary;
	location	"system";
	object	createPatchDict;
}
pointSync	false;
patches	(
	{
		name	face53_merged;
		patchInfo
		{
			type	patch;
		}
		constructFrom	patches;
		patches	(face19 face11 face26 face40 face50 face21 face35 face56 face12 face28 face42 face52 face15 face31 face22 face36 face46 face17 face33 face24 face38 face48 face58 face27 face41 face51 face18 face34 face55 face13 face29 face43 face53 face20 face23 face37 face47 face57 face14 face30 face44 face54 face25 face39 face49 face16 face32 face45);
	}
);
