FoamFile
{
	version	2.0;
	format	ascii;
	class	dictionary;
	location	"system";
	object	topoSetDict;
}
actions	(
	{
		name	rotor;
		type	cellZoneSet;
		action	new;
		source	zoneToCell;
		sourceInfo
		{
			zone	cylinder_1;
		}
	}

	{
		name	cylinder_1;
		type	cellZoneSet;
		action	remove;
	}
);
